DB-3969_tmp.pdbqt
 OpenBabel09162017173D

  4  3  0  0  0  0  0  0  0  0999 V2000
   -2.2920  -11.3780  -23.2990 C   0  0  0  0  0  1  0  0  0  0  0  0
   -1.9520  -10.5600  -22.1330 N   0  0  0  0  0  2  0  0  0  0  0  0
   -0.7770  -10.7420  -21.7600 N   0  0  0  0  0  2  0  0  0  0  0  0
   -0.5420  -10.1660  -20.9420 H   0  0  0  0  0  0  0  0  0  0  0  0
  1  2  1  0  0  0  0
  2  3  1  0  0  0  0
  3  4  1  0  0  0  0
M  END
>  <REMARK>
  0 active torsions:
  status: ('A' for Active; 'I' for Inactive)

>  <TORSDO>
F 0

>  <AutodockScore>


>  <TITLE>
DB-3969

$$$$
