DB-2133_tmp.pdbqt
 OpenBabel09172006583D

  5  4  0  0  0  0  0  0  0  0999 V2000
  -10.5380   -3.3920  -16.7130 C   0  0  0  0  0  1  0  0  0  0  0  0
   -9.3940   -2.7040  -16.1310 N   0  0  0  0  0  0  0  0  0  0  0  0
   -8.7050   -3.3930  -15.8280 H   0  0  0  0  0  0  0  0  0  0  0  0
   -8.7830   -1.7960  -17.1010 C   0  0  0  0  0  2  0  0  0  0  0  0
   -7.5100   -1.1970  -16.5230 C   0  0  0  0  0  1  0  0  0  0  0  0
  1  2  1  0  0  0  0
  2  3  1  0  0  0  0
  4  5  1  0  0  0  0
  4  2  1  0  0  0  0
M  END
>  <REMARK>
  1 active torsions:
  status: ('A' for Active; 'I' for Inactive)
    1  A    between atoms: N_2  and  C_3 

>  <TORSDO>
F 1

>  <AutodockScore>


>  <TITLE>
DB-2133

$$$$
