DB-3969_tmp.pdbqt
 OpenBabel09172006583D

  4  3  0  0  0  0  0  0  0  0999 V2000
  -12.1800   -0.7740  -30.3770 C   0  0  0  0  0  1  0  0  0  0  0  0
  -10.9020   -1.4900  -30.3790 N   0  0  0  0  0  2  0  0  0  0  0  0
  -11.0290   -2.6720  -30.0060 N   0  0  0  0  0  2  0  0  0  0  0  0
  -10.1310   -3.1720  -30.0090 H   0  0  0  0  0  0  0  0  0  0  0  0
  2  1  1  0  0  0  0
  2  3  1  0  0  0  0
  4  3  1  0  0  0  0
M  END
>  <REMARK>
  0 active torsions:
  status: ('A' for Active; 'I' for Inactive)

>  <TORSDO>
F 0

>  <AutodockScore>


>  <TITLE>
DB-3969

$$$$
